Program Version,EnergyPlus, Version 8.2.0-e53a815bb2, YMD=2015.12.15 14:42,IDD_Version 8.2.0
   ** Warning ** ProcessScheduleInput: Schedule:Compact="ACTIVITY SCH", Schedule Type Limits Name="ANY NUMBER" not found -- will not be validated
   ** Warning ** ProcessScheduleInput: Schedule:Compact="WORK EFF SCH", Schedule Type Limits Name="ANY NUMBER" not found -- will not be validated
   ** Warning ** ProcessScheduleInput: Schedule:Compact="CLOTHING SCH", Schedule Type Limits Name="ANY NUMBER" not found -- will not be validated
   ** Warning ** ProcessScheduleInput: Schedule:Compact="AIR VELO SCH", Schedule Type Limits Name="ANY NUMBER" not found -- will not be validated
   ** Warning ** ProcessScheduleInput: Schedule:Compact="WINDOWVENTSCHED", Schedule Type Limits Name="ANY NUMBER" not found -- will not be validated
   ** Severe  ** GetSurfaceData: Outward facing angle [0.0] of subsurface="DOOR1" significantly different than
   **   ~~~   ** ..facing angle [180.0] of base surface=SURFACE_1 Tilt=90.0
   **   ~~~   ** ..surface class of base surface=Wall
   ************* Testing Individual Branch Integrity
   ************* All Branches passed integrity testing
   ************* Testing Individual Supply Air Path Integrity
   ************* All Supply Air Paths passed integrity testing
   ************* Testing Individual Return Air Path Integrity
   ************* All Return Air Paths passed integrity testing
   ************* No node connection errors were found.
   ************* Beginning Simulation
   ************* Simulation Error Summary *************
   ************* There are 3 unused schedules in input.
   ************* Use Output:Diagnostics,DisplayUnusedSchedules; to see them.
   *************
   ************* ===== Recurring Surface Error Summary =====
   ************* The following surface error messages occurred.
   *************
   ************* Base Surface does not surround subsurface errors occuring...
   ************* Check that the GlobalGeometryRules object is expressing the proper starting corner and direction [CounterClockwise/Clockwise]
   *************
   ** Warning ** Base surface does not surround subsurface (CHKSBS), Overlap Status=Partial-Overlap
   **   ~~~   **   The base surround errors occurred 1 times.
   **   ~~~   ** Surface "SURFACE_1" overlaps SubSurface "DOOR1"
   *************
   **   ~~~   **   The base surround errors occurred 1 times (total).
   *************
   ************* EnergyPlus Warmup Error Summary. During Warmup: 0 Warning; 0 Severe Errors.
   ************* EnergyPlus Sizing Error Summary. During Sizing: 0 Warning; 0 Severe Errors.
   ************* EnergyPlus Completed Successfully-- 6 Warning; 1 Severe Errors; Elapsed Time=00hr 00min  9.00sec
